* NGSPICE file created from heichips25_SDR.ext - technology: ihp-sg13g2

* Black-box entry subcircuit for sg13g2_a22oi_1 abstract view
.subckt sg13g2_a22oi_1 Y B1 B2 A2 A1 VDD VSS
.ends

* Black-box entry subcircuit for sg13g2_o21ai_1 abstract view
.subckt sg13g2_o21ai_1 B1 VDD Y VSS A1 A2
.ends

* Black-box entry subcircuit for sg13g2_decap_8 abstract view
.subckt sg13g2_decap_8 VDD VSS
.ends

* Black-box entry subcircuit for sg13g2_a21oi_1 abstract view
.subckt sg13g2_a21oi_1 VSS VDD A1 A2 Y B1
.ends

* Black-box entry subcircuit for sg13g2_nor2b_1 abstract view
.subckt sg13g2_nor2b_1 A B_N Y VDD VSS
.ends

* Black-box entry subcircuit for sg13g2_xor2_1 abstract view
.subckt sg13g2_xor2_1 B A X VDD VSS
.ends

* Black-box entry subcircuit for sg13g2_nand2_1 abstract view
.subckt sg13g2_nand2_1 Y A B VDD VSS
.ends

* Black-box entry subcircuit for sg13g2_dlygate4sd3_1 abstract view
.subckt sg13g2_dlygate4sd3_1 A VDD VSS X
.ends

* Black-box entry subcircuit for sg13g2_fill_2 abstract view
.subckt sg13g2_fill_2 VDD VSS
.ends

* Black-box entry subcircuit for sg13g2_buf_8 abstract view
.subckt sg13g2_buf_8 A X VDD VSS
.ends

* Black-box entry subcircuit for sg13g2_buf_1 abstract view
.subckt sg13g2_buf_1 A X VDD VSS
.ends

* Black-box entry subcircuit for sg13g2_buf_2 abstract view
.subckt sg13g2_buf_2 A X VDD VSS
.ends

* Black-box entry subcircuit for sg13g2_fill_1 abstract view
.subckt sg13g2_fill_1 VDD VSS
.ends

* Black-box entry subcircuit for sg13g2_nand2b_1 abstract view
.subckt sg13g2_nand2b_1 Y B A_N VDD VSS
.ends

* Black-box entry subcircuit for sg13g2_decap_4 abstract view
.subckt sg13g2_decap_4 VDD VSS
.ends

* Black-box entry subcircuit for sg13g2_xnor2_1 abstract view
.subckt sg13g2_xnor2_1 Y A B VDD VSS
.ends

* Black-box entry subcircuit for sg13g2_dfrbpq_1 abstract view
.subckt sg13g2_dfrbpq_1 RESET_B VSS VDD D Q CLK
.ends

* Black-box entry subcircuit for sg13g2_and2_1 abstract view
.subckt sg13g2_and2_1 A B X VDD VSS
.ends

* Black-box entry subcircuit for sg13g2_nand3_1 abstract view
.subckt sg13g2_nand3_1 B C A Y VDD VSS
.ends

* Black-box entry subcircuit for sg13g2_or2_1 abstract view
.subckt sg13g2_or2_1 VSS VDD X B A
.ends

* Black-box entry subcircuit for sg13g2_and4_1 abstract view
.subckt sg13g2_and4_1 A B C D X VDD VSS
.ends

* Black-box entry subcircuit for sg13g2_a21o_1 abstract view
.subckt sg13g2_a21o_1 A2 A1 B1 X VDD VSS
.ends

* Black-box entry subcircuit for sg13g2_or3_1 abstract view
.subckt sg13g2_or3_1 A B C X VDD VSS
.ends

* Black-box entry subcircuit for sg13g2_and3_1 abstract view
.subckt sg13g2_and3_1 X A B C VDD VSS
.ends

* Black-box entry subcircuit for sg13g2_nand4_1 abstract view
.subckt sg13g2_nand4_1 B C A Y VDD VSS D
.ends

* Black-box entry subcircuit for sg13g2_nor3_1 abstract view
.subckt sg13g2_nor3_1 A B C Y VDD VSS
.ends

* Black-box entry subcircuit for sg13g2_nor2_1 abstract view
.subckt sg13g2_nor2_1 A B Y VDD VSS
.ends

* Black-box entry subcircuit for sg13g2_mux2_1 abstract view
.subckt sg13g2_mux2_1 A0 A1 S X VDD VSS
.ends

* Black-box entry subcircuit for sg13g2_a21oi_2 abstract view
.subckt sg13g2_a21oi_2 VSS VDD B1 Y A2 A1
.ends

* Black-box entry subcircuit for sg13g2_dfrbpq_2 abstract view
.subckt sg13g2_dfrbpq_2 RESET_B VSS VDD D Q CLK
.ends

* Black-box entry subcircuit for sg13g2_nand2_2 abstract view
.subckt sg13g2_nand2_2 Y A B VDD VSS
.ends

* Black-box entry subcircuit for sg13g2_nor2b_2 abstract view
.subckt sg13g2_nor2b_2 A B_N Y VDD VSS
.ends

* Black-box entry subcircuit for sg13g2_nor4_1 abstract view
.subckt sg13g2_nor4_1 A B C D Y VDD VSS
.ends

* Black-box entry subcircuit for sg13g2_a221oi_1 abstract view
.subckt sg13g2_a221oi_1 VDD VSS B2 C1 B1 A1 Y A2
.ends

* Black-box entry subcircuit for sg13g2_nand3b_1 abstract view
.subckt sg13g2_nand3b_1 B C Y VDD VSS A_N
.ends

* Black-box entry subcircuit for sg13g2_inv_1 abstract view
.subckt sg13g2_inv_1 VDD Y A VSS
.ends

* Black-box entry subcircuit for sg13g2_nor2_2 abstract view
.subckt sg13g2_nor2_2 A B Y VDD VSS
.ends

* Black-box entry subcircuit for sg13g2_inv_2 abstract view
.subckt sg13g2_inv_2 Y A VDD VSS
.ends

* Black-box entry subcircuit for sg13g2_and3_2 abstract view
.subckt sg13g2_and3_2 X A B C VDD VSS
.ends

* Black-box entry subcircuit for sg13g2_inv_8 abstract view
.subckt sg13g2_inv_8 Y A VDD VSS
.ends

* Black-box entry subcircuit for sg13g2_a21o_2 abstract view
.subckt sg13g2_a21o_2 A2 A1 B1 X VDD VSS
.ends

* Black-box entry subcircuit for sg13g2_inv_4 abstract view
.subckt sg13g2_inv_4 A Y VDD VSS
.ends

* Black-box entry subcircuit for sg13g2_nand2b_2 abstract view
.subckt sg13g2_nand2b_2 Y B VDD VSS A_N
.ends

* Black-box entry subcircuit for sg13g2_tiehi abstract view
.subckt sg13g2_tiehi VDD VSS L_HI
.ends

* Black-box entry subcircuit for sg13g2_nor3_2 abstract view
.subckt sg13g2_nor3_2 A B C Y VDD VSS
.ends

.subckt heichips25_SDR VGND VPWR clk ena rst_n ui_in[0] ui_in[1] ui_in[2] ui_in[3]
+ ui_in[4] ui_in[5] ui_in[6] ui_in[7] uio_in[0] uio_in[1] uio_in[2] uio_in[3] uio_in[4]
+ uio_in[5] uio_in[6] uio_in[7] uio_oe[0] uio_oe[1] uio_oe[2] uio_oe[3] uio_oe[4]
+ uio_oe[5] uio_oe[6] uio_oe[7] uio_out[0] uio_out[1] uio_out[2] uio_out[3] uio_out[4]
+ uio_out[5] uio_out[6] uio_out[7] uo_out[0] uo_out[1] uo_out[2] uo_out[3] uo_out[4]
+ uo_out[5] uo_out[6] uo_out[7]
X_3155_ _2747_ net947 net894 net892 net950 VPWR VGND sg13g2_a22oi_1
X_3086_ _2675_ VPWR _2680_ VGND _2676_ _2678_ sg13g2_o21ai_1
XFILLER_36_962 VPWR VGND sg13g2_decap_8
XFILLER_23_601 VPWR VGND sg13g2_decap_8
X_3988_ VGND VPWR _0788_ _0791_ _0832_ _0831_ sg13g2_a21oi_1
X_5727_ _2430_ _2434_ _2435_ VPWR VGND sg13g2_nor2b_1
X_5658_ DP_1.Q_range.out_data\[3\] DP_1.I_range.out_data\[3\] _2367_ VPWR VGND sg13g2_xor2_1
X_5589_ _2312_ mac1.total_sum\[3\] mac2.total_sum\[3\] VPWR VGND sg13g2_nand2_1
X_4609_ _1424_ net881 net825 VPWR VGND sg13g2_nand2_1
Xhold362 DP_1.matrix\[2\] VPWR VGND net402 sg13g2_dlygate4sd3_1
Xhold351 DP_2.matrix\[36\] VPWR VGND net391 sg13g2_dlygate4sd3_1
Xhold340 mac2.sum_lvl3_ff\[30\] VPWR VGND net380 sg13g2_dlygate4sd3_1
Xhold373 DP_4.matrix\[6\] VPWR VGND net413 sg13g2_dlygate4sd3_1
Xhold395 _0024_ VPWR VGND net435 sg13g2_dlygate4sd3_1
XFILLER_2_549 VPWR VGND sg13g2_fill_2
Xhold384 _2284_ VPWR VGND net424 sg13g2_dlygate4sd3_1
Xfanout820 net428 net820 VPWR VGND sg13g2_buf_8
Xfanout842 net843 net842 VPWR VGND sg13g2_buf_1
Xfanout831 net832 net831 VPWR VGND sg13g2_buf_2
Xfanout875 DP_3.matrix\[6\] net875 VPWR VGND sg13g2_buf_8
Xfanout853 net372 net853 VPWR VGND sg13g2_buf_1
Xfanout864 net492 net864 VPWR VGND sg13g2_buf_8
Xfanout897 net310 net897 VPWR VGND sg13g2_buf_2
Xfanout886 net365 net886 VPWR VGND sg13g2_buf_8
XFILLER_27_973 VPWR VGND sg13g2_decap_8
XFILLER_33_409 VPWR VGND sg13g2_fill_2
XFILLER_42_910 VPWR VGND sg13g2_decap_8
XFILLER_42_987 VPWR VGND sg13g2_decap_8
XFILLER_6_877 VPWR VGND sg13g2_fill_1
XFILLER_3_56 VPWR VGND sg13g2_fill_1
XFILLER_49_553 VPWR VGND sg13g2_fill_1
XFILLER_49_586 VPWR VGND sg13g2_decap_8
XFILLER_18_962 VPWR VGND sg13g2_decap_8
XFILLER_17_461 VPWR VGND sg13g2_fill_1
X_4960_ _1760_ net850 net789 VPWR VGND sg13g2_nand2_1
X_4891_ _1698_ _1697_ _1694_ VPWR VGND sg13g2_nand2b_1
X_3911_ _0756_ net974 net908 VPWR VGND sg13g2_nand2_1
XFILLER_32_420 VPWR VGND sg13g2_fill_1
XFILLER_33_965 VPWR VGND sg13g2_decap_8
X_3842_ _0689_ net972 net912 VPWR VGND sg13g2_nand2_1
XFILLER_20_637 VPWR VGND sg13g2_decap_4
XFILLER_32_497 VPWR VGND sg13g2_fill_1
XFILLER_9_671 VPWR VGND sg13g2_fill_2
X_3773_ VGND VPWR _0616_ _0619_ _0623_ _0617_ sg13g2_a21oi_1
X_5512_ _0055_ _2249_ _2252_ VPWR VGND sg13g2_xnor2_1
X_6492_ net1026 VGND VPWR net8 DP_1.Q_range.out_data\[6\] clknet_leaf_6_clk sg13g2_dfrbpq_1
X_5443_ mac2.sum_lvl2_ff\[21\] net320 _2199_ VPWR VGND sg13g2_and2_1
X_5374_ net434 _2143_ _0024_ VPWR VGND sg13g2_xor2_1
X_4325_ _1129_ VPWR _1154_ VGND _1150_ _1152_ sg13g2_o21ai_1
X_4256_ _1083_ _1085_ _1086_ VPWR VGND sg13g2_nor2b_1
X_3207_ _2798_ net896 net1006 VPWR VGND sg13g2_nand2_1
X_4187_ _1018_ _1017_ _1020_ VPWR VGND sg13g2_xor2_1
X_3138_ _2731_ _2729_ _2730_ VPWR VGND sg13g2_nand2_1
X_3069_ _2640_ VPWR _2663_ VGND _2617_ _2638_ sg13g2_o21ai_1
Xhold170 mac1.products_ff\[81\] VPWR VGND net210 sg13g2_dlygate4sd3_1
Xhold181 mac1.sum_lvl1_ff\[47\] VPWR VGND net221 sg13g2_dlygate4sd3_1
Xhold192 mac1.products_ff\[80\] VPWR VGND net232 sg13g2_dlygate4sd3_1
XFILLER_37_95 VPWR VGND sg13g2_fill_2
XFILLER_42_740 VPWR VGND sg13g2_fill_2
XFILLER_14_431 VPWR VGND sg13g2_fill_2
XFILLER_18_1004 VPWR VGND sg13g2_decap_8
XFILLER_14_442 VPWR VGND sg13g2_fill_2
XFILLER_15_987 VPWR VGND sg13g2_decap_8
XFILLER_30_913 VPWR VGND sg13g2_decap_8
XFILLER_6_652 VPWR VGND sg13g2_fill_1
XFILLER_6_674 VPWR VGND sg13g2_fill_1
X_4110_ _0950_ _0932_ _0949_ VPWR VGND sg13g2_nand2_1
XFILLER_25_1008 VPWR VGND sg13g2_decap_8
X_5090_ _1884_ _1885_ _1866_ _1887_ VPWR VGND sg13g2_nand3_1
X_4041_ VGND VPWR _0883_ _0856_ _0854_ sg13g2_or2_1
X_5992_ net1043 VGND VPWR _0070_ mac1.products_ff\[1\] clknet_leaf_61_clk sg13g2_dfrbpq_1
X_4943_ net799 net795 net849 net847 _1744_ VPWR VGND sg13g2_and4_1
X_4874_ _1682_ _1652_ _1680_ VPWR VGND sg13g2_xnor2_1
XFILLER_20_401 VPWR VGND sg13g2_fill_1
X_3825_ _0661_ VPWR _0673_ VGND _0669_ _0671_ sg13g2_o21ai_1
X_3756_ _0609_ _0592_ _0610_ VPWR VGND sg13g2_xor2_1
Xclkbuf_4_12_0_clk clknet_0_clk clknet_4_12_0_clk VPWR VGND sg13g2_buf_8
X_6475_ net1012 VGND VPWR net489 mac2.total_sum\[3\] clknet_leaf_3_clk sg13g2_dfrbpq_1
X_5426_ _2187_ mac1.sum_lvl3_ff\[33\] net341 VPWR VGND sg13g2_xnor2_1
X_3687_ _0544_ net982 DP_2.matrix\[7\] VPWR VGND sg13g2_nand2_1
X_5357_ VGND VPWR mac1.sum_lvl2_ff\[32\] mac1.sum_lvl2_ff\[13\] _2133_ _2131_ sg13g2_a21oi_1
X_5288_ _2065_ VPWR _2078_ VGND _2039_ _2063_ sg13g2_o21ai_1
X_4308_ _1137_ _1136_ _1135_ VPWR VGND sg13g2_nand2b_1
X_4239_ _1067_ _1066_ _1061_ _1070_ VPWR VGND sg13g2_a21o_1
XFILLER_16_729 VPWR VGND sg13g2_fill_1
XFILLER_8_906 VPWR VGND sg13g2_fill_1
XFILLER_12_957 VPWR VGND sg13g2_decap_8
XFILLER_23_53 VPWR VGND sg13g2_fill_1
XFILLER_3_600 VPWR VGND sg13g2_fill_2
XFILLER_38_309 VPWR VGND sg13g2_fill_2
XFILLER_47_876 VPWR VGND sg13g2_decap_8
X_3610_ _0470_ _0426_ _0429_ VPWR VGND sg13g2_nand2_1
X_4590_ _1395_ _1403_ _1405_ _1406_ VPWR VGND sg13g2_or3_1
XFILLER_7_950 VPWR VGND sg13g2_decap_8
X_3541_ _0402_ _0356_ _0399_ VPWR VGND sg13g2_xnor2_1
X_3472_ _0332_ _0331_ _0326_ _0335_ VPWR VGND sg13g2_a21o_1
X_6260_ net1052 VGND VPWR net66 mac2.sum_lvl1_ff\[73\] clknet_leaf_14_clk sg13g2_dfrbpq_1
X_6191_ net1085 VGND VPWR net94 mac1.sum_lvl2_ff\[12\] clknet_leaf_46_clk sg13g2_dfrbpq_1
X_5211_ VGND VPWR _1972_ _1975_ _2005_ _1970_ sg13g2_a21oi_1
X_5142_ _1938_ _1891_ _1894_ _1935_ VPWR VGND sg13g2_and3_1
X_5073_ VGND VPWR _1870_ _1868_ _1827_ sg13g2_or2_1
XFILLER_49_180 VPWR VGND sg13g2_fill_2
X_4024_ VGND VPWR _0828_ _0830_ _0867_ _0866_ sg13g2_a21oi_1
XFILLER_37_331 VPWR VGND sg13g2_fill_2
XFILLER_38_865 VPWR VGND sg13g2_decap_8
XFILLER_25_526 VPWR VGND sg13g2_fill_2
X_5975_ net805 _0257_ VPWR VGND sg13g2_buf_1
XFILLER_21_721 VPWR VGND sg13g2_fill_1
X_4926_ DP_4.matrix\[73\] net851 net799 _1728_ VPWR VGND net848 sg13g2_nand4_1
X_4857_ _1666_ _1661_ _1665_ VPWR VGND sg13g2_nand2_1
X_3808_ _0656_ net977 net911 VPWR VGND sg13g2_nand2_1
X_4788_ _1599_ _1571_ _1598_ VPWR VGND sg13g2_nand2_1
X_3739_ _0593_ _0569_ _0594_ VPWR VGND sg13g2_xor2_1
X_6458_ net1058 VGND VPWR net322 mac2.sum_lvl3_ff\[2\] clknet_leaf_11_clk sg13g2_dfrbpq_1
X_5409_ _2173_ mac1.sum_lvl3_ff\[30\] net377 VPWR VGND sg13g2_xnor2_1
X_6389_ net1059 VGND VPWR net223 mac2.sum_lvl1_ff\[2\] clknet_leaf_29_clk sg13g2_dfrbpq_1
XFILLER_44_879 VPWR VGND sg13g2_decap_8
XFILLER_31_507 VPWR VGND sg13g2_fill_2
XFILLER_43_389 VPWR VGND sg13g2_fill_1
XFILLER_43_378 VPWR VGND sg13g2_fill_1
XFILLER_4_975 VPWR VGND sg13g2_decap_8
XFILLER_3_485 VPWR VGND sg13g2_fill_1
XFILLER_3_474 VPWR VGND sg13g2_fill_2
XFILLER_35_802 VPWR VGND sg13g2_fill_2
XFILLER_46_172 VPWR VGND sg13g2_fill_1
XFILLER_34_312 VPWR VGND sg13g2_fill_1
XFILLER_15_570 VPWR VGND sg13g2_fill_2
X_5760_ _2464_ _2465_ _2466_ _2467_ VPWR VGND sg13g2_nor3_1
X_5691_ _2395_ _2399_ _2400_ VPWR VGND sg13g2_nor2b_1
XFILLER_15_592 VPWR VGND sg13g2_fill_2
X_4711_ _1523_ _1522_ _1454_ _1524_ VPWR VGND sg13g2_a21o_1
XFILLER_30_573 VPWR VGND sg13g2_fill_2
X_4642_ _1437_ _1427_ _1435_ _1456_ VPWR VGND sg13g2_a21o_1
X_4573_ _1381_ VPWR _1389_ VGND _1373_ _1383_ sg13g2_o21ai_1
X_3524_ _0374_ VPWR _0385_ VGND _0353_ _0375_ sg13g2_o21ai_1
X_6312_ net1049 VGND VPWR net251 mac2.sum_lvl3_ff\[25\] clknet_leaf_13_clk sg13g2_dfrbpq_1
X_3455_ _0316_ _0315_ _0318_ VPWR VGND sg13g2_xor2_1
X_6243_ net1039 VGND VPWR net136 mac1.sum_lvl1_ff\[72\] clknet_leaf_63_clk sg13g2_dfrbpq_1
X_3386_ _2968_ _2961_ _2967_ VPWR VGND sg13g2_nand2_1
X_6174_ net1084 VGND VPWR net257 mac1.sum_lvl1_ff\[47\] clknet_leaf_48_clk sg13g2_dfrbpq_1
X_5125_ _1877_ VPWR _1921_ VGND _1875_ _1878_ sg13g2_o21ai_1
X_5056_ _1854_ _1852_ _1853_ VPWR VGND sg13g2_nand2_1
XFILLER_38_640 VPWR VGND sg13g2_fill_1
X_4007_ _0822_ VPWR _0850_ VGND _0816_ _0823_ sg13g2_o21ai_1
XFILLER_38_695 VPWR VGND sg13g2_decap_4
X_5958_ net863 _0232_ VPWR VGND sg13g2_buf_1
X_4909_ _1715_ _1709_ _1714_ VPWR VGND sg13g2_xnor2_1
XFILLER_40_359 VPWR VGND sg13g2_fill_2
X_5889_ _2571_ net873 net762 VPWR VGND sg13g2_nand2_1
XFILLER_1_934 VPWR VGND sg13g2_decap_8
XFILLER_49_905 VPWR VGND sg13g2_decap_8
Xhold30 mac1.sum_lvl2_ff\[39\] VPWR VGND net70 sg13g2_dlygate4sd3_1
Xhold41 mac1.sum_lvl1_ff\[86\] VPWR VGND net81 sg13g2_dlygate4sd3_1
Xhold74 mac1.sum_lvl1_ff\[2\] VPWR VGND net114 sg13g2_dlygate4sd3_1
Xhold52 mac1.products_ff\[69\] VPWR VGND net92 sg13g2_dlygate4sd3_1
XFILLER_21_1011 VPWR VGND sg13g2_decap_8
Xhold63 mac1.sum_lvl1_ff\[14\] VPWR VGND net103 sg13g2_dlygate4sd3_1
Xhold96 mac1.products_ff\[136\] VPWR VGND net136 sg13g2_dlygate4sd3_1
XFILLER_28_150 VPWR VGND sg13g2_fill_2
Xhold85 mac2.sum_lvl1_ff\[45\] VPWR VGND net125 sg13g2_dlygate4sd3_1
XFILLER_44_643 VPWR VGND sg13g2_fill_1
XFILLER_16_334 VPWR VGND sg13g2_fill_2
XFILLER_45_84 VPWR VGND sg13g2_fill_2
XFILLER_43_175 VPWR VGND sg13g2_fill_2
XFILLER_12_551 VPWR VGND sg13g2_fill_2
XFILLER_40_871 VPWR VGND sg13g2_decap_8
XFILLER_8_599 VPWR VGND sg13g2_decap_4
XFILLER_4_761 VPWR VGND sg13g2_fill_2
X_3240_ _2802_ VPWR _2830_ VGND _2796_ _2803_ sg13g2_o21ai_1
X_3171_ _2763_ _2743_ _2761_ _2762_ VPWR VGND sg13g2_and3_1
Xfanout1050 net1053 net1050 VPWR VGND sg13g2_buf_8
Xfanout1083 net1084 net1083 VPWR VGND sg13g2_buf_8
Xfanout1072 net1074 net1072 VPWR VGND sg13g2_buf_8
XFILLER_39_459 VPWR VGND sg13g2_fill_2
Xfanout1061 net1062 net1061 VPWR VGND sg13g2_buf_8
XFILLER_48_982 VPWR VGND sg13g2_decap_8
Xfanout1094 net1095 net1094 VPWR VGND sg13g2_buf_8
X_5812_ net804 net779 _2518_ VPWR VGND sg13g2_nor2_1
X_5743_ net768 VPWR _2450_ VGND net1001 net777 sg13g2_o21ai_1
XFILLER_16_890 VPWR VGND sg13g2_fill_1
XFILLER_31_871 VPWR VGND sg13g2_decap_8
X_5674_ net977 net993 net774 _2383_ VPWR VGND sg13g2_mux2_1
X_4625_ _1438_ _1439_ _1421_ _1440_ VPWR VGND sg13g2_nand3_1
Xhold500 _2273_ VPWR VGND net540 sg13g2_dlygate4sd3_1
X_4556_ VGND VPWR _1373_ _1372_ _1370_ sg13g2_or2_1
X_3507_ _0366_ _0367_ _0361_ _0369_ VPWR VGND sg13g2_nand3_1
X_4487_ _1271_ _1310_ _1311_ VPWR VGND sg13g2_nor2_1
X_3438_ _0299_ _0300_ _0294_ _0302_ VPWR VGND sg13g2_nand3_1
X_6226_ net1065 VGND VPWR net213 mac1.sum_lvl2_ff\[53\] clknet_leaf_11_clk sg13g2_dfrbpq_1
X_6157_ net1054 VGND VPWR _0262_ DP_4.matrix\[74\] clknet_leaf_25_clk sg13g2_dfrbpq_1
X_3369_ VGND VPWR _2924_ _2947_ _2954_ _2949_ sg13g2_a21oi_1
X_5108_ _1904_ net852 net994 VPWR VGND sg13g2_nand2_1
X_6088_ net1025 VGND VPWR _0098_ mac1.products_ff\[149\] clknet_leaf_8_clk sg13g2_dfrbpq_1
XFILLER_39_993 VPWR VGND sg13g2_decap_8
X_5039_ _1832_ VPWR _1837_ VGND _1833_ _1835_ sg13g2_o21ai_1
XFILLER_26_676 VPWR VGND sg13g2_decap_8
Xoutput31 net31 uo_out[6] VPWR VGND sg13g2_buf_1
Xoutput20 net20 uio_out[3] VPWR VGND sg13g2_buf_1
XFILLER_49_757 VPWR VGND sg13g2_decap_8
XFILLER_0_274 VPWR VGND sg13g2_fill_2
XFILLER_36_407 VPWR VGND sg13g2_fill_1
XFILLER_45_930 VPWR VGND sg13g2_decap_8
XFILLER_32_624 VPWR VGND sg13g2_fill_2
XFILLER_9_897 VPWR VGND sg13g2_fill_1
XFILLER_12_392 VPWR VGND sg13g2_fill_2
X_4410_ _1117_ _1162_ _1116_ _1237_ VPWR VGND _1202_ sg13g2_nand4_1
X_5390_ _2153_ net484 _2157_ _2158_ VPWR VGND sg13g2_nor3_1
X_4341_ _1169_ net866 net801 VPWR VGND sg13g2_nand2_1
XFILLER_28_1028 VPWR VGND sg13g2_fill_1
X_4272_ _1102_ _1095_ _1100_ _1101_ VPWR VGND sg13g2_and3_1
X_6011_ net1067 VGND VPWR _0078_ mac1.products_ff\[72\] clknet_leaf_53_clk sg13g2_dfrbpq_1
X_3223_ _2814_ _2768_ _2771_ _2811_ VPWR VGND sg13g2_and3_1
X_3154_ net894 net950 net892 net946 _2746_ VPWR VGND sg13g2_and4_1
X_3085_ _2675_ _2676_ _2678_ _2679_ VPWR VGND sg13g2_or3_1
XFILLER_36_941 VPWR VGND sg13g2_decap_8
X_3987_ _0829_ _0797_ _0831_ VPWR VGND sg13g2_xor2_1
X_5726_ _2431_ VPWR _2434_ VGND _2432_ _2433_ sg13g2_o21ai_1
X_5657_ VGND VPWR _2365_ _2366_ _2361_ _2360_ sg13g2_a21oi_2
X_5588_ VGND VPWR _2308_ _2310_ _2311_ _2309_ sg13g2_a21oi_1
X_4608_ _1423_ net881 net823 VPWR VGND sg13g2_nand2_1
Xhold352 DP_1.matrix\[1\] VPWR VGND net392 sg13g2_dlygate4sd3_1
Xhold341 _2281_ VPWR VGND net381 sg13g2_dlygate4sd3_1
X_4539_ VGND VPWR _1350_ _1353_ _1357_ _1351_ sg13g2_a21oi_1
Xhold330 DP_3.matrix\[1\] VPWR VGND net370 sg13g2_dlygate4sd3_1
Xhold374 DP_2.matrix\[6\] VPWR VGND net414 sg13g2_dlygate4sd3_1
Xhold363 DP_1.matrix\[44\] VPWR VGND net403 sg13g2_dlygate4sd3_1
Xhold396 mac2.sum_lvl3_ff\[27\] VPWR VGND net436 sg13g2_dlygate4sd3_1
Xhold385 _2286_ VPWR VGND net425 sg13g2_dlygate4sd3_1
Xfanout843 net308 net843 VPWR VGND sg13g2_buf_2
Xfanout821 net413 net821 VPWR VGND sg13g2_buf_8
X_6209_ net1084 VGND VPWR net217 mac1.sum_lvl2_ff\[33\] clknet_leaf_47_clk sg13g2_dfrbpq_2
Xfanout832 DP_4.matrix\[1\] net832 VPWR VGND sg13g2_buf_2
Xfanout810 DP_4.matrix\[39\] net810 VPWR VGND sg13g2_buf_1
Xfanout876 net364 net876 VPWR VGND sg13g2_buf_8
Xfanout854 DP_3.matrix\[72\] net854 VPWR VGND sg13g2_buf_8
Xfanout865 net866 net865 VPWR VGND sg13g2_buf_8
XFILLER_46_705 VPWR VGND sg13g2_fill_2
Xfanout898 net902 net898 VPWR VGND sg13g2_buf_2
Xfanout887 net888 net887 VPWR VGND sg13g2_buf_8
XFILLER_46_749 VPWR VGND sg13g2_fill_2
XFILLER_27_952 VPWR VGND sg13g2_decap_8
XFILLER_42_966 VPWR VGND sg13g2_decap_8
XFILLER_41_421 VPWR VGND sg13g2_fill_1
XFILLER_6_812 VPWR VGND sg13g2_fill_2
XFILLER_22_690 VPWR VGND sg13g2_fill_1
XFILLER_6_845 VPWR VGND sg13g2_fill_2
XFILLER_10_896 VPWR VGND sg13g2_fill_2
XFILLER_49_532 VPWR VGND sg13g2_decap_8
XFILLER_49_565 VPWR VGND sg13g2_fill_2
XFILLER_3_1019 VPWR VGND sg13g2_decap_8
XFILLER_36_226 VPWR VGND sg13g2_fill_1
XFILLER_45_760 VPWR VGND sg13g2_fill_1
X_4890_ _1696_ _1671_ _1697_ VPWR VGND sg13g2_xor2_1
X_3910_ _0755_ net974 net906 VPWR VGND sg13g2_nand2_1
XFILLER_33_944 VPWR VGND sg13g2_decap_8
X_3841_ _0688_ net976 net910 VPWR VGND sg13g2_nand2_1
X_3772_ _0622_ net281 net504 VPWR VGND sg13g2_nand2_2
XFILLER_32_476 VPWR VGND sg13g2_fill_1
XFILLER_34_1010 VPWR VGND sg13g2_decap_8
X_5511_ mac2.sum_lvl3_ff\[1\] mac2.sum_lvl3_ff\[21\] _2252_ VPWR VGND sg13g2_xor2_1
XFILLER_9_683 VPWR VGND sg13g2_decap_4
X_6491_ net1026 VGND VPWR DP_1.Q_range.data_plus_4\[6\] DP_1.Q_range.out_data\[5\]
+ clknet_leaf_18_clk sg13g2_dfrbpq_1
X_5442_ _2195_ VPWR _2198_ VGND _2194_ _2196_ sg13g2_o21ai_1
X_5373_ net433 mac1.sum_lvl3_ff\[22\] _2145_ VPWR VGND sg13g2_xor2_1
X_4324_ _1129_ _1150_ _1152_ _1153_ VPWR VGND sg13g2_or3_1
X_4255_ VGND VPWR _1085_ _1084_ _1051_ sg13g2_or2_1
X_3206_ _2754_ VPWR _2797_ VGND _2752_ _2755_ sg13g2_o21ai_1
X_4186_ _1019_ _1017_ _1018_ VPWR VGND sg13g2_nand2_1
XFILLER_41_1025 VPWR VGND sg13g2_decap_4
X_3137_ _2691_ VPWR _2730_ VGND _2692_ _2693_ sg13g2_o21ai_1
X_3068_ _2662_ _2654_ _2658_ VPWR VGND sg13g2_nand2_1
XFILLER_36_760 VPWR VGND sg13g2_fill_2
XFILLER_24_988 VPWR VGND sg13g2_decap_8
XFILLER_23_498 VPWR VGND sg13g2_fill_2
X_5709_ _2414_ VPWR _2417_ VGND _2415_ _2416_ sg13g2_o21ai_1
XFILLER_3_804 VPWR VGND sg13g2_fill_1
XFILLER_12_66 VPWR VGND sg13g2_fill_2
Xhold171 mac2.products_ff\[146\] VPWR VGND net211 sg13g2_dlygate4sd3_1
Xhold160 mac2.sum_lvl1_ff\[9\] VPWR VGND net200 sg13g2_dlygate4sd3_1
Xhold193 mac2.sum_lvl2_ff\[42\] VPWR VGND net233 sg13g2_dlygate4sd3_1
Xhold182 mac2.sum_lvl1_ff\[79\] VPWR VGND net222 sg13g2_dlygate4sd3_1
XFILLER_37_85 VPWR VGND sg13g2_fill_2
XFILLER_15_911 VPWR VGND sg13g2_decap_4
XFILLER_42_752 VPWR VGND sg13g2_decap_4
XFILLER_15_966 VPWR VGND sg13g2_decap_8
XFILLER_30_969 VPWR VGND sg13g2_decap_8
X_4040_ _0844_ VPWR _0882_ VGND _0841_ _0845_ sg13g2_o21ai_1
X_5991_ net1043 VGND VPWR _0069_ mac1.products_ff\[0\] clknet_leaf_62_clk sg13g2_dfrbpq_1
XFILLER_17_281 VPWR VGND sg13g2_fill_2
XFILLER_33_730 VPWR VGND sg13g2_decap_8
X_4942_ _1743_ net850 net791 VPWR VGND sg13g2_nand2_1
X_4873_ _1681_ _1680_ _1652_ VPWR VGND sg13g2_nand2b_1
X_3824_ _0661_ _0669_ _0671_ _0672_ VPWR VGND sg13g2_or3_1
XFILLER_21_969 VPWR VGND sg13g2_decap_8
X_3755_ _0609_ net980 DP_2.matrix\[8\] VPWR VGND sg13g2_nand2_1
X_6474_ net1012 VGND VPWR net453 mac2.total_sum\[2\] clknet_leaf_2_clk sg13g2_dfrbpq_1
X_3686_ _0543_ net986 net1005 VPWR VGND sg13g2_nand2_1
X_5425_ mac1.sum_lvl3_ff\[33\] net341 _2186_ VPWR VGND sg13g2_and2_1
X_5356_ net480 _2132_ _0004_ VPWR VGND sg13g2_nor2b_2
X_5287_ VGND VPWR _2047_ _2069_ _2077_ _2071_ sg13g2_a21oi_1
X_4307_ _1131_ VPWR _1136_ VGND _1133_ _1134_ sg13g2_o21ai_1
X_4238_ _1066_ _1067_ _1061_ _1069_ VPWR VGND sg13g2_nand3_1
X_4169_ _0082_ _0988_ _1001_ VPWR VGND sg13g2_xnor2_1
XFILLER_11_446 VPWR VGND sg13g2_fill_2
XFILLER_20_991 VPWR VGND sg13g2_decap_8
XFILLER_47_855 VPWR VGND sg13g2_decap_4
XFILLER_34_505 VPWR VGND sg13g2_decap_4
XFILLER_42_593 VPWR VGND sg13g2_decap_4
XFILLER_11_991 VPWR VGND sg13g2_decap_8
X_3540_ _0356_ _0399_ _0401_ VPWR VGND sg13g2_and2_1
X_3471_ _0331_ _0332_ _0326_ _0334_ VPWR VGND sg13g2_nand3_1
X_5210_ _2002_ _2003_ _2004_ VPWR VGND sg13g2_nor2b_1
X_6190_ net1082 VGND VPWR net49 mac1.sum_lvl2_ff\[11\] clknet_leaf_45_clk sg13g2_dfrbpq_1
X_5141_ _1894_ _1891_ _1935_ _1937_ VPWR VGND sg13g2_a21o_1
X_5072_ _1869_ net789 net844 VPWR VGND sg13g2_nand2_1
X_4023_ _0866_ _0837_ _0864_ VPWR VGND sg13g2_xnor2_1
X_5974_ net808 _0256_ VPWR VGND sg13g2_buf_1
X_4925_ net799 net795 net851 net848 _1727_ VPWR VGND sg13g2_and4_1
X_4856_ VGND VPWR _1664_ _1665_ _1663_ _1604_ sg13g2_a21oi_2
X_3807_ _0647_ VPWR _0655_ VGND _0639_ _0649_ sg13g2_o21ai_1
XFILLER_21_799 VPWR VGND sg13g2_fill_1
X_4787_ _1596_ _1572_ _1598_ VPWR VGND sg13g2_xor2_1
X_3738_ _0593_ DP_2.matrix\[6\] net1011 VPWR VGND sg13g2_nand2_1
X_3669_ _0514_ _0526_ _0527_ VPWR VGND sg13g2_nor2_1
X_6457_ net1058 VGND VPWR net292 mac2.sum_lvl3_ff\[1\] clknet_leaf_12_clk sg13g2_dfrbpq_2
X_5408_ _2172_ mac1.sum_lvl3_ff\[30\] net377 VPWR VGND sg13g2_nand2_1
X_6388_ net1057 VGND VPWR net45 mac2.sum_lvl1_ff\[1\] clknet_leaf_28_clk sg13g2_dfrbpq_1
X_5339_ _2118_ net538 _0001_ VPWR VGND sg13g2_xor2_1
XFILLER_28_343 VPWR VGND sg13g2_fill_2
XFILLER_29_888 VPWR VGND sg13g2_decap_8
XFILLER_43_324 VPWR VGND sg13g2_fill_1
XFILLER_15_1008 VPWR VGND sg13g2_decap_8
XFILLER_11_243 VPWR VGND sg13g2_fill_1
XFILLER_4_954 VPWR VGND sg13g2_decap_8
Xclkbuf_leaf_58_clk clknet_4_9_0_clk clknet_leaf_58_clk VPWR VGND sg13g2_buf_8
Xclkbuf_4_11_0_clk clknet_0_clk clknet_4_11_0_clk VPWR VGND sg13g2_buf_8
XFILLER_15_560 VPWR VGND sg13g2_fill_2
X_5690_ _2396_ VPWR _2399_ VGND _2397_ _2398_ sg13g2_o21ai_1
XFILLER_30_541 VPWR VGND sg13g2_fill_1
X_4710_ _1521_ _1520_ _1486_ _1523_ VPWR VGND sg13g2_a21o_1
X_4641_ _1455_ _1449_ _1453_ VPWR VGND sg13g2_xnor2_1
XFILLER_7_770 VPWR VGND sg13g2_fill_1
X_4572_ _1387_ _1369_ _0088_ VPWR VGND sg13g2_xor2_1
X_3523_ _0383_ _0382_ _0113_ VPWR VGND sg13g2_xor2_1
X_6311_ net1049 VGND VPWR net233 mac2.sum_lvl3_ff\[24\] clknet_leaf_13_clk sg13g2_dfrbpq_1
X_6242_ net1031 VGND VPWR net250 mac2.sum_lvl2_ff\[53\] clknet_leaf_23_clk sg13g2_dfrbpq_1
X_3454_ _0317_ _0315_ _0316_ VPWR VGND sg13g2_nand2b_1
X_3385_ _2966_ _2963_ _2967_ VPWR VGND sg13g2_xor2_1
X_6173_ net1084 VGND VPWR net247 mac1.sum_lvl1_ff\[46\] clknet_leaf_47_clk sg13g2_dfrbpq_1
X_5124_ _1920_ _1914_ _1919_ VPWR VGND sg13g2_xnor2_1
Xclkbuf_leaf_49_clk clknet_4_10_0_clk clknet_leaf_49_clk VPWR VGND sg13g2_buf_8
X_5055_ _1813_ VPWR _1853_ VGND _1814_ _1815_ sg13g2_o21ai_1
X_4006_ _0847_ _0839_ _0849_ VPWR VGND sg13g2_xor2_1
XFILLER_38_674 VPWR VGND sg13g2_fill_1
XFILLER_38_1019 VPWR VGND sg13g2_decap_8
X_5957_ net865 _0231_ VPWR VGND sg13g2_buf_1
XFILLER_41_817 VPWR VGND sg13g2_decap_4
X_4908_ _1714_ _1701_ _1713_ VPWR VGND sg13g2_xnor2_1
XFILLER_34_891 VPWR VGND sg13g2_decap_8
X_5888_ _2570_ VPWR _0226_ VGND net761 _2569_ sg13g2_o21ai_1
X_4839_ _1648_ _1642_ _1647_ VPWR VGND sg13g2_xnor2_1
XFILLER_4_206 VPWR VGND sg13g2_fill_1
XFILLER_1_913 VPWR VGND sg13g2_decap_8
Xhold31 mac1.sum_lvl1_ff\[9\] VPWR VGND net71 sg13g2_dlygate4sd3_1
Xhold20 mac1.products_ff\[83\] VPWR VGND net60 sg13g2_dlygate4sd3_1
Xhold42 mac2.sum_lvl2_ff\[50\] VPWR VGND net82 sg13g2_dlygate4sd3_1
Xhold64 mac2.sum_lvl1_ff\[80\] VPWR VGND net104 sg13g2_dlygate4sd3_1
Xhold53 mac2.products_ff\[11\] VPWR VGND net93 sg13g2_dlygate4sd3_1
Xhold86 mac1.sum_lvl1_ff\[73\] VPWR VGND net126 sg13g2_dlygate4sd3_1
Xhold75 mac1.sum_lvl1_ff\[74\] VPWR VGND net115 sg13g2_dlygate4sd3_1
Xhold97 mac2.sum_lvl2_ff\[46\] VPWR VGND net137 sg13g2_dlygate4sd3_1
XFILLER_16_313 VPWR VGND sg13g2_fill_1
XFILLER_17_836 VPWR VGND sg13g2_fill_1
XFILLER_45_52 VPWR VGND sg13g2_fill_1
XFILLER_43_165 VPWR VGND sg13g2_fill_2
X_3170_ _2750_ VPWR _2762_ VGND _2758_ _2760_ sg13g2_o21ai_1
XFILLER_6_1028 VPWR VGND sg13g2_fill_1
XFILLER_6_1017 VPWR VGND sg13g2_decap_8
Xfanout1040 net1042 net1040 VPWR VGND sg13g2_buf_8
XFILLER_0_990 VPWR VGND sg13g2_decap_8
Xfanout1062 net1063 net1062 VPWR VGND sg13g2_buf_8
Xfanout1051 net1053 net1051 VPWR VGND sg13g2_buf_8
Xfanout1073 net1074 net1073 VPWR VGND sg13g2_buf_8
XFILLER_48_961 VPWR VGND sg13g2_decap_8
Xfanout1095 net1097 net1095 VPWR VGND sg13g2_buf_8
Xfanout1084 net1087 net1084 VPWR VGND sg13g2_buf_8
XFILLER_47_493 VPWR VGND sg13g2_fill_2
X_5811_ _2517_ net784 net766 VPWR VGND sg13g2_nand2_1
XFILLER_16_880 VPWR VGND sg13g2_fill_2
XFILLER_35_699 VPWR VGND sg13g2_decap_8
X_5742_ DP_3.Q_range.out_data\[2\] DP_3.I_range.out_data\[2\] _2449_ VPWR VGND sg13g2_xor2_1
X_5673_ _2379_ VPWR _2382_ VGND _2380_ _2381_ sg13g2_o21ai_1
X_4624_ _1437_ _1436_ _1427_ _1439_ VPWR VGND sg13g2_a21o_1
Xhold501 _0061_ VPWR VGND net541 sg13g2_dlygate4sd3_1
X_4555_ _1356_ _1371_ _1372_ VPWR VGND sg13g2_nor2_1
X_3506_ _0368_ _0361_ _0366_ _0367_ VPWR VGND sg13g2_and3_1
X_4486_ _1310_ _1301_ _1309_ VPWR VGND sg13g2_xnor2_1
XFILLER_44_1012 VPWR VGND sg13g2_decap_8
X_3437_ _0301_ _0294_ _0299_ _0300_ VPWR VGND sg13g2_and3_1
X_6225_ net1046 VGND VPWR net81 mac1.sum_lvl2_ff\[52\] clknet_leaf_10_clk sg13g2_dfrbpq_1
X_6156_ net1054 VGND VPWR _0261_ DP_4.matrix\[73\] clknet_leaf_25_clk sg13g2_dfrbpq_2
X_3368_ VGND VPWR _2936_ _2952_ _2953_ _2951_ sg13g2_a21oi_1
X_5107_ _1870_ VPWR _1903_ VGND _1867_ _1871_ sg13g2_o21ai_1
XFILLER_45_408 VPWR VGND sg13g2_fill_2
X_3299_ _2867_ VPWR _2887_ VGND _2864_ _2868_ sg13g2_o21ai_1
X_6087_ net1081 VGND VPWR _0211_ DP_2.matrix\[43\] clknet_leaf_45_clk sg13g2_dfrbpq_1
XFILLER_39_972 VPWR VGND sg13g2_decap_8
X_5038_ _1832_ _1833_ _1835_ _1836_ VPWR VGND sg13g2_or3_1
XFILLER_22_850 VPWR VGND sg13g2_fill_2
XFILLER_21_360 VPWR VGND sg13g2_fill_1
Xoutput32 net32 uo_out[7] VPWR VGND sg13g2_buf_1
Xoutput21 net21 uio_out[4] VPWR VGND sg13g2_buf_1
XFILLER_1_798 VPWR VGND sg13g2_decap_8
XFILLER_37_909 VPWR VGND sg13g2_decap_8
XFILLER_17_600 VPWR VGND sg13g2_fill_2
XFILLER_16_110 VPWR VGND sg13g2_fill_2
XFILLER_45_986 VPWR VGND sg13g2_decap_8
XFILLER_13_861 VPWR VGND sg13g2_fill_2
XFILLER_9_832 VPWR VGND sg13g2_fill_2
XFILLER_28_1007 VPWR VGND sg13g2_decap_8
X_4340_ _1168_ net870 net995 VPWR VGND sg13g2_nand2_1
X_4271_ _1096_ VPWR _1101_ VGND _1097_ _1099_ sg13g2_o21ai_1
X_6010_ net1067 VGND VPWR _0077_ mac1.products_ff\[71\] clknet_leaf_52_clk sg13g2_dfrbpq_1
X_3222_ _2771_ _2768_ _2811_ _2813_ VPWR VGND sg13g2_a21o_1
X_3153_ _2745_ net892 net947 VPWR VGND sg13g2_nand2_1
XFILLER_28_909 VPWR VGND sg13g2_decap_8
X_3084_ _2678_ net944 net904 net946 net900 VPWR VGND sg13g2_a22oi_1
XFILLER_36_920 VPWR VGND sg13g2_decap_8
XFILLER_36_997 VPWR VGND sg13g2_decap_8
X_3986_ _0830_ _0797_ _0829_ VPWR VGND sg13g2_nand2b_1
X_5725_ net771 VPWR _2433_ VGND DP_2.matrix\[40\] net773 sg13g2_o21ai_1
X_5656_ _2364_ VPWR _2365_ VGND DP_1.I_range.out_data\[5\] _2359_ sg13g2_o21ai_1
X_4607_ _1422_ net885 net822 VPWR VGND sg13g2_nand2_1
X_5587_ _2310_ _2308_ net27 VPWR VGND sg13g2_xor2_1
Xhold320 mac2.sum_lvl2_ff\[3\] VPWR VGND net360 sg13g2_dlygate4sd3_1
Xhold331 DP_1.matrix\[38\] VPWR VGND net371 sg13g2_dlygate4sd3_1
Xhold353 mac1.sum_lvl3_ff\[11\] VPWR VGND net393 sg13g2_dlygate4sd3_1
Xhold342 _0049_ VPWR VGND net382 sg13g2_dlygate4sd3_1
X_4538_ _1356_ net886 net825 VPWR VGND sg13g2_nand2_1
Xhold364 DP_4.matrix\[5\] VPWR VGND net404 sg13g2_dlygate4sd3_1
Xfanout800 net282 net800 VPWR VGND sg13g2_buf_2
Xhold375 mac1.sum_lvl2_ff\[2\] VPWR VGND net415 sg13g2_dlygate4sd3_1
Xhold386 _0050_ VPWR VGND net426 sg13g2_dlygate4sd3_1
X_4469_ VGND VPWR _1234_ _1266_ _1294_ _1265_ sg13g2_a21oi_1
Xfanout822 net404 net822 VPWR VGND sg13g2_buf_8
X_6208_ net1083 VGND VPWR net242 mac1.sum_lvl2_ff\[32\] clknet_leaf_47_clk sg13g2_dfrbpq_2
Xhold397 _2270_ VPWR VGND net437 sg13g2_dlygate4sd3_1
Xfanout811 net331 net811 VPWR VGND sg13g2_buf_8
Xfanout833 net837 net833 VPWR VGND sg13g2_buf_8
Xfanout844 net845 net844 VPWR VGND sg13g2_buf_8
Xfanout855 net857 net855 VPWR VGND sg13g2_buf_2
Xfanout866 net473 net866 VPWR VGND sg13g2_buf_8
Xfanout877 DP_3.matrix\[5\] net877 VPWR VGND sg13g2_buf_8
XFILLER_46_717 VPWR VGND sg13g2_fill_2
Xfanout899 net902 net899 VPWR VGND sg13g2_buf_1
Xfanout888 net346 net888 VPWR VGND sg13g2_buf_1
X_6139_ net1096 VGND VPWR net76 mac1.sum_lvl1_ff\[14\] clknet_leaf_46_clk sg13g2_dfrbpq_1
XFILLER_27_931 VPWR VGND sg13g2_decap_8
XFILLER_14_603 VPWR VGND sg13g2_fill_1